data_image0
_cell_length_a       12.2905
_cell_length_b       12.2905
_cell_length_c       20
_cell_angle_alpha    90
_cell_angle_beta     90
_cell_angle_gamma    120

_symmetry_space_group_name_H-M    "P 1"
_symmetry_int_tables_number       1

loop_
  _symmetry_equiv_pos_as_xyz
  'x, y, z'

loop_
  _atom_site_label
  _atom_site_occupancy
  _atom_site_fract_x
  _atom_site_fract_y
  _atom_site_fract_z
  _atom_site_thermal_displace_type
  _atom_site_B_iso_or_equiv
  _atom_site_type_symbol
  In1      1.0000 0.11763  0.23527  0.57523  Biso   1.000  In
  In2      1.0000 0.10991  0.55496  0.57774  Biso   1.000  In
  In3      1.0000 0.11763  0.88237  0.57523  Biso   1.000  In
  In4      1.0000 0.43262  0.21631  0.57947  Biso   1.000  In
  In5      1.0000 0.44504  0.55496  0.57774  Biso   1.000  In
  In6      1.0000 0.44504  0.89009  0.57774  Biso   1.000  In
  In7      1.0000 0.78369  0.21631  0.57947  Biso   1.000  In
  In8      1.0000 0.78369  0.56738  0.57947  Biso   1.000  In
  In9      1.0000 0.76473  0.88237  0.57523  Biso   1.000  In
  In10     1.0000 0.22543  0.11272  0.78964  Biso   1.000  In
  In11     1.0000 0.22101  0.44201  0.78981  Biso   1.000  In
  In12     1.0000 0.22101  0.77899  0.78981  Biso   1.000  In
  In13     1.0000 0.55461  0.10923  0.79048  Biso   1.000  In
  In14     1.0000 0.55461  0.44539  0.79048  Biso   1.000  In
  In15     1.0000 0.55799  0.77899  0.78981  Biso   1.000  In
  In16     1.0000 0.88728  0.11272  0.78964  Biso   1.000  In
  In17     1.0000 0.89077  0.44539  0.79048  Biso   1.000  In
  In18     1.0000 0.88728  0.77457  0.78964  Biso   1.000  In
  Se1      1.0000 0.00109  0.33699  0.50910  Biso   1.000  Se
  Se2      1.0000 0.00109  0.66410  0.50910  Biso   1.000  Se
  Se3      1.0000 0.33590  0.99891  0.50910  Biso   1.000  Se
  Se4      1.0000 0.33590  0.33699  0.50910  Biso   1.000  Se
  Se5      1.0000 0.33333  0.66667  0.51267  Biso   1.000  Se
  Se6      1.0000 0.66301  0.99891  0.50910  Biso   1.000  Se
  Se7      1.0000 0.66301  0.66410  0.50910  Biso   1.000  Se
  Se8      1.0000 0.22070  0.11035  0.66203  Biso   1.000  Se
  Se9      1.0000 0.22289  0.44578  0.66193  Biso   1.000  Se
  Se10     1.0000 0.22289  0.77711  0.66193  Biso   1.000  Se
  Se11     1.0000 0.55390  0.10780  0.66342  Biso   1.000  Se
  Se12     1.0000 0.55390  0.44610  0.66342  Biso   1.000  Se
  Se13     1.0000 0.55422  0.77711  0.66193  Biso   1.000  Se
  Se14     1.0000 0.88965  0.11035  0.66203  Biso   1.000  Se
  Se15     1.0000 0.89220  0.44610  0.66342  Biso   1.000  Se
  Se16     1.0000 0.88965  0.77930  0.66203  Biso   1.000  Se
  Se17     1.0000 0.00000  0.00000  0.84896  Biso   1.000  Se
  Se18     1.0000 0.00076  0.33344  0.85340  Biso   1.000  Se
  Se19     1.0000 0.00076  0.66732  0.85340  Biso   1.000  Se
  Se20     1.0000 0.33268  0.99924  0.85340  Biso   1.000  Se
  Se21     1.0000 0.33268  0.33344  0.85340  Biso   1.000  Se
  Se22     1.0000 0.33333  0.66667  0.84969  Biso   1.000  Se
  Se23     1.0000 0.66656  0.99924  0.85340  Biso   1.000  Se
  Se24     1.0000 0.66667  0.33333  0.85127  Biso   1.000  Se
  Se25     1.0000 0.66656  0.66732  0.85340  Biso   1.000  Se
  As1      1.0000 0.00000  0.00000  0.52697  Biso   1.000  As
  As2      1.0000 0.66667  0.33333  0.52954  Biso   1.000  As
